<?xml version="1.0" encoding="UTF-8"?>

<!-- generated on 04/15/16 20:58:10 by SUMO netconvert Version 0.23.0
<?xml version="1.0" encoding="UTF-8"?>

<configuration xmlns:xsi="http://www.w3.org/2001/XMLSchema-instance" xsi:noNamespaceSchemaLocation="http://sumo.dlr.de/xsd/netconvertConfiguration.xsd">

    <input>
        <node-files value="single.nod.xml"/>
        <edge-files value="single.edg.xml"/>
    </input>

    <output>
        <output-file value="single.net.xml"/>
    </output>

</configuration>
-->

<net version="0.13" xmlns:xsi="http://www.w3.org/2001/XMLSchema-instance" xsi:noNamespaceSchemaLocation="http://sumo.dlr.de/xsd/net_file.xsd">

    <location netOffset="0.00,0.00" convBoundary="0.00,0.00,2000.00,1000.00" origBoundary="0.00,0.00,2000.00,1000.00" projParameter="!"/>

    <edge id=":1_0" function="internal">
        <lane id=":1_0_0" index="0" speed="15.00" length="7.90" shape="1000.05,-8.25 1003.64,-7.74 1006.20,-6.20 1007.74,-3.64 1008.25,-0.05"/>
        <lane id=":1_0_1" index="1" speed="15.00" length="7.90" shape="1000.05,-4.95 1002.19,-4.64 1003.72,-3.73 1004.64,-2.19 1004.95,-0.05"/>
        <lane id=":1_0_2" index="2" speed="15.00" length="7.90" shape="1000.05,-1.65 1000.75,-1.55 1001.25,-1.25 1001.55,-0.75 1001.65,-0.05"/>
    </edge>
    <edge id=":2_0" function="internal">
        <lane id=":2_0_0" index="0" speed="15.00" length="7.90" shape="1008.25,990.15 1008.35,990.85 1008.65,991.35 1009.15,991.65 1009.85,991.75"/>
        <lane id=":2_0_1" index="1" speed="15.00" length="7.90" shape="1004.95,990.15 1005.26,992.29 1006.18,993.82 1007.71,994.74 1009.85,995.05"/>
        <lane id=":2_0_2" index="2" speed="15.00" length="7.90" shape="1001.65,990.15 1002.16,993.74 1003.70,996.30 1006.26,997.84 1009.85,998.35"/>
    </edge>

    <edge id="a" from="0" to="1" priority="1">
        <lane id="a_0" index="0" speed="15.00" length="1000.05" shape="0.00,-8.25 1000.05,-8.25"/>
        <lane id="a_1" index="1" speed="15.00" length="1000.05" shape="0.00,-4.95 1000.05,-4.95"/>
        <lane id="a_2" index="2" speed="15.00" length="1000.05" shape="0.00,-1.65 1000.05,-1.65"/>
    </edge>
    <edge id="b" from="1" to="2" priority="1">
        <lane id="b_0" index="0" speed="15.00" length="990.20" shape="1008.25,-0.05 1008.25,990.15"/>
        <lane id="b_1" index="1" speed="15.00" length="990.20" shape="1004.95,-0.05 1004.95,990.15"/>
        <lane id="b_2" index="2" speed="15.00" length="990.20" shape="1001.65,-0.05 1001.65,990.15"/>
    </edge>
    <edge id="c" from="2" to="3" priority="1">
        <lane id="c_0" index="0" speed="15.00" length="990.15" shape="1009.85,991.75 2000.00,991.75"/>
        <lane id="c_1" index="1" speed="15.00" length="990.15" shape="1009.85,995.05 2000.00,995.05"/>
        <lane id="c_2" index="2" speed="15.00" length="990.15" shape="1009.85,998.35 2000.00,998.35"/>
    </edge>

    <junction id="0" type="unregulated" x="0.00" y="0.00" incLanes="" intLanes="" shape="-0.00,-0.05 -0.00,-9.85"/>
    <junction id="1" type="priority" x="1000.00" y="0.00" incLanes="a_0 a_1 a_2" intLanes=":1_0_0 :1_0_1 :1_0_2" shape="1000.05,-0.05 1009.85,-0.05 1000.05,-9.85 1000.05,-0.05">
        <request index="0" response="000" foes="000" cont="0"/>
        <request index="1" response="000" foes="000" cont="0"/>
        <request index="2" response="000" foes="000" cont="0"/>
    </junction>
    <junction id="2" type="priority" x="1000.00" y="1000.00" incLanes="b_0 b_1 b_2" intLanes=":2_0_0 :2_0_1 :2_0_2" shape="1009.85,999.95 1009.85,990.15 1000.05,990.15">
        <request index="0" response="000" foes="000" cont="0"/>
        <request index="1" response="000" foes="000" cont="0"/>
        <request index="2" response="000" foes="000" cont="0"/>
    </junction>
    <junction id="3" type="unregulated" x="2000.00" y="1000.00" incLanes="c_0 c_1 c_2" intLanes="" shape="2000.00,990.15 2000.00,999.95"/>

    <connection from="a" to="b" fromLane="0" toLane="0" via=":1_0_0" dir="l" state="M"/>
    <connection from="a" to="b" fromLane="1" toLane="1" via=":1_0_1" dir="l" state="M"/>
    <connection from="a" to="b" fromLane="2" toLane="2" via=":1_0_2" dir="l" state="M"/>
    <connection from="b" to="c" fromLane="0" toLane="0" via=":2_0_0" dir="r" state="M"/>
    <connection from="b" to="c" fromLane="1" toLane="1" via=":2_0_1" dir="r" state="M"/>
    <connection from="b" to="c" fromLane="2" toLane="2" via=":2_0_2" dir="r" state="M"/>

    <connection from=":1_0" to="b" fromLane="0" toLane="0" dir="s" state="M"/>
    <connection from=":1_0" to="b" fromLane="1" toLane="1" dir="s" state="M"/>
    <connection from=":1_0" to="b" fromLane="2" toLane="2" dir="s" state="M"/>
    <connection from=":2_0" to="c" fromLane="0" toLane="0" dir="s" state="M"/>
    <connection from=":2_0" to="c" fromLane="1" toLane="1" dir="s" state="M"/>
    <connection from=":2_0" to="c" fromLane="2" toLane="2" dir="s" state="M"/>

</net>
