<flows>
<flow id="0" from="a" to="c" begin="0" end="250" number="50"/>
</flows>