<?xml version="1.0" encoding="UTF-8"?>

<!-- generated on 04/15/16 21:32:29 by SUMO duarouter Version 0.23.0
<?xml version="1.0" encoding="UTF-8"?>

<configuration xmlns:xsi="http://www.w3.org/2001/XMLSchema-instance" xsi:noNamespaceSchemaLocation="http://sumo.dlr.de/xsd/duarouterConfiguration.xsd">

    <input>
        <net-file value="single.net.xml"/>
        <flow-files value="single.flow.xml"/>
    </input>

    <output>
        <output-file value="single.rou.xml"/>
    </output>

    <defaults>
        <departlane value="allowed"/>
        <departspeed value="random"/>
    </defaults>

</configuration>
-->

<routes xmlns:xsi="http://www.w3.org/2001/XMLSchema-instance" xsi:noNamespaceSchemaLocation="http://sumo.dlr.de/xsd/routes_file.xsd">
    <vehicle id="0" depart="0.00" departLane="allowed" departSpeed="random">
        <route edges="a b c"/>
    </vehicle>
    <vehicle id="1" depart="5.00" departLane="allowed" departSpeed="random">
        <route edges="a b c"/>
    </vehicle>
    <vehicle id="2" depart="10.00" departLane="allowed" departSpeed="random">
        <route edges="a b c"/>
    </vehicle>
    <vehicle id="3" depart="15.00" departLane="allowed" departSpeed="random">
        <route edges="a b c"/>
    </vehicle>
    <vehicle id="4" depart="20.00" departLane="allowed" departSpeed="random">
        <route edges="a b c"/>
    </vehicle>
    <vehicle id="5" depart="25.00" departLane="allowed" departSpeed="random">
        <route edges="a b c"/>
    </vehicle>
    <vehicle id="6" depart="30.00" departLane="allowed" departSpeed="random">
        <route edges="a b c"/>
    </vehicle>
    <vehicle id="7" depart="35.00" departLane="allowed" departSpeed="random">
        <route edges="a b c"/>
    </vehicle>
    <vehicle id="8" depart="40.00" departLane="allowed" departSpeed="random">
        <route edges="a b c"/>
    </vehicle>
    <vehicle id="9" depart="45.00" departLane="allowed" departSpeed="random">
        <route edges="a b c"/>
    </vehicle>
    <vehicle id="10" depart="50.00" departLane="allowed" departSpeed="random">
        <route edges="a b c"/>
    </vehicle>
    <vehicle id="11" depart="55.00" departLane="allowed" departSpeed="random">
        <route edges="a b c"/>
    </vehicle>
    <vehicle id="12" depart="60.00" departLane="allowed" departSpeed="random">
        <route edges="a b c"/>
    </vehicle>
    <vehicle id="13" depart="65.00" departLane="allowed" departSpeed="random">
        <route edges="a b c"/>
    </vehicle>
    <vehicle id="14" depart="70.00" departLane="allowed" departSpeed="random">
        <route edges="a b c"/>
    </vehicle>
    <vehicle id="15" depart="75.00" departLane="allowed" departSpeed="random">
        <route edges="a b c"/>
    </vehicle>
    <vehicle id="16" depart="80.00" departLane="allowed" departSpeed="random">
        <route edges="a b c"/>
    </vehicle>
    <vehicle id="17" depart="85.00" departLane="allowed" departSpeed="random">
        <route edges="a b c"/>
    </vehicle>
    <vehicle id="18" depart="90.00" departLane="allowed" departSpeed="random">
        <route edges="a b c"/>
    </vehicle>
    <vehicle id="19" depart="95.00" departLane="allowed" departSpeed="random">
        <route edges="a b c"/>
    </vehicle>
    <vehicle id="20" depart="100.00" departLane="allowed" departSpeed="random">
        <route edges="a b c"/>
    </vehicle>
    <vehicle id="21" depart="105.00" departLane="allowed" departSpeed="random">
        <route edges="a b c"/>
    </vehicle>
    <vehicle id="22" depart="110.00" departLane="allowed" departSpeed="random">
        <route edges="a b c"/>
    </vehicle>
    <vehicle id="23" depart="115.00" departLane="allowed" departSpeed="random">
        <route edges="a b c"/>
    </vehicle>
    <vehicle id="24" depart="120.00" departLane="allowed" departSpeed="random">
        <route edges="a b c"/>
    </vehicle>
    <vehicle id="25" depart="125.00" departLane="allowed" departSpeed="random">
        <route edges="a b c"/>
    </vehicle>
    <vehicle id="26" depart="130.00" departLane="allowed" departSpeed="random">
        <route edges="a b c"/>
    </vehicle>
    <vehicle id="27" depart="135.00" departLane="allowed" departSpeed="random">
        <route edges="a b c"/>
    </vehicle>
    <vehicle id="28" depart="140.00" departLane="allowed" departSpeed="random">
        <route edges="a b c"/>
    </vehicle>
    <vehicle id="29" depart="145.00" departLane="allowed" departSpeed="random">
        <route edges="a b c"/>
    </vehicle>
    <vehicle id="30" depart="150.00" departLane="allowed" departSpeed="random">
        <route edges="a b c"/>
    </vehicle>
    <vehicle id="31" depart="155.00" departLane="allowed" departSpeed="random">
        <route edges="a b c"/>
    </vehicle>
    <vehicle id="32" depart="160.00" departLane="allowed" departSpeed="random">
        <route edges="a b c"/>
    </vehicle>
    <vehicle id="33" depart="165.00" departLane="allowed" departSpeed="random">
        <route edges="a b c"/>
    </vehicle>
    <vehicle id="34" depart="170.00" departLane="allowed" departSpeed="random">
        <route edges="a b c"/>
    </vehicle>
    <vehicle id="35" depart="175.00" departLane="allowed" departSpeed="random">
        <route edges="a b c"/>
    </vehicle>
    <vehicle id="36" depart="180.00" departLane="allowed" departSpeed="random">
        <route edges="a b c"/>
    </vehicle>
    <vehicle id="37" depart="185.00" departLane="allowed" departSpeed="random">
        <route edges="a b c"/>
    </vehicle>
    <vehicle id="38" depart="190.00" departLane="allowed" departSpeed="random">
        <route edges="a b c"/>
    </vehicle>
    <vehicle id="39" depart="195.00" departLane="allowed" departSpeed="random">
        <route edges="a b c"/>
    </vehicle>
    <vehicle id="40" depart="200.00" departLane="allowed" departSpeed="random">
        <route edges="a b c"/>
    </vehicle>
    <vehicle id="41" depart="205.00" departLane="allowed" departSpeed="random">
        <route edges="a b c"/>
    </vehicle>
    <vehicle id="42" depart="210.00" departLane="allowed" departSpeed="random">
        <route edges="a b c"/>
    </vehicle>
    <vehicle id="43" depart="215.00" departLane="allowed" departSpeed="random">
        <route edges="a b c"/>
    </vehicle>
    <vehicle id="44" depart="220.00" departLane="allowed" departSpeed="random">
        <route edges="a b c"/>
    </vehicle>
    <vehicle id="45" depart="225.00" departLane="allowed" departSpeed="random">
        <route edges="a b c"/>
    </vehicle>
    <vehicle id="46" depart="230.00" departLane="allowed" departSpeed="random">
        <route edges="a b c"/>
    </vehicle>
    <vehicle id="47" depart="235.00" departLane="allowed" departSpeed="random">
        <route edges="a b c"/>
    </vehicle>
    <vehicle id="48" depart="240.00" departLane="allowed" departSpeed="random">
        <route edges="a b c"/>
    </vehicle>
    <vehicle id="49" depart="245.00" departLane="allowed" departSpeed="random">
        <route edges="a b c"/>
    </vehicle>
</routes>
