<flows>
<flow id="0" from="a" to="c" begin="0" end="80" number="240"/>
</flows>