<?xml version="1.0" encoding="UTF-8"?>

<!-- generated on 04/15/16 20:58:17 by SUMO duarouter Version 0.23.0
<?xml version="1.0" encoding="UTF-8"?>

<configuration xmlns:xsi="http://www.w3.org/2001/XMLSchema-instance" xsi:noNamespaceSchemaLocation="http://sumo.dlr.de/xsd/duarouterConfiguration.xsd">

    <input>
        <net-file value="single.net.xml"/>
        <flow-files value="single.flow.xml"/>
    </input>

    <output>
        <output-file value="single.rou.xml"/>
    </output>

    <defaults>
        <departlane value="allowed"/>
        <departspeed value="random"/>
    </defaults>

</configuration>
-->

<routes xmlns:xsi="http://www.w3.org/2001/XMLSchema-instance" xsi:noNamespaceSchemaLocation="http://sumo.dlr.de/xsd/routes_file.xsd">
    <vehicle id="0" depart="0.00" departLane="allowed" departSpeed="random">
        <route edges="a b c"/>
    </vehicle>
    <vehicle id="1" depart="0.33" departLane="allowed" departSpeed="random">
        <route edges="a b c"/>
    </vehicle>
    <vehicle id="2" depart="0.67" departLane="allowed" departSpeed="random">
        <route edges="a b c"/>
    </vehicle>
    <vehicle id="3" depart="1.00" departLane="allowed" departSpeed="random">
        <route edges="a b c"/>
    </vehicle>
    <vehicle id="4" depart="1.33" departLane="allowed" departSpeed="random">
        <route edges="a b c"/>
    </vehicle>
    <vehicle id="5" depart="1.67" departLane="allowed" departSpeed="random">
        <route edges="a b c"/>
    </vehicle>
    <vehicle id="6" depart="2.00" departLane="allowed" departSpeed="random">
        <route edges="a b c"/>
    </vehicle>
    <vehicle id="7" depart="2.33" departLane="allowed" departSpeed="random">
        <route edges="a b c"/>
    </vehicle>
    <vehicle id="8" depart="2.66" departLane="allowed" departSpeed="random">
        <route edges="a b c"/>
    </vehicle>
    <vehicle id="9" depart="3.00" departLane="allowed" departSpeed="random">
        <route edges="a b c"/>
    </vehicle>
    <vehicle id="10" depart="3.33" departLane="allowed" departSpeed="random">
        <route edges="a b c"/>
    </vehicle>
    <vehicle id="11" depart="3.66" departLane="allowed" departSpeed="random">
        <route edges="a b c"/>
    </vehicle>
    <vehicle id="12" depart="4.00" departLane="allowed" departSpeed="random">
        <route edges="a b c"/>
    </vehicle>
    <vehicle id="13" depart="4.33" departLane="allowed" departSpeed="random">
        <route edges="a b c"/>
    </vehicle>
    <vehicle id="14" depart="4.66" departLane="allowed" departSpeed="random">
        <route edges="a b c"/>
    </vehicle>
    <vehicle id="15" depart="5.00" departLane="allowed" departSpeed="random">
        <route edges="a b c"/>
    </vehicle>
    <vehicle id="16" depart="5.33" departLane="allowed" departSpeed="random">
        <route edges="a b c"/>
    </vehicle>
    <vehicle id="17" depart="5.66" departLane="allowed" departSpeed="random">
        <route edges="a b c"/>
    </vehicle>
    <vehicle id="18" depart="5.99" departLane="allowed" departSpeed="random">
        <route edges="a b c"/>
    </vehicle>
    <vehicle id="19" depart="6.33" departLane="allowed" departSpeed="random">
        <route edges="a b c"/>
    </vehicle>
    <vehicle id="20" depart="6.66" departLane="allowed" departSpeed="random">
        <route edges="a b c"/>
    </vehicle>
    <vehicle id="21" depart="6.99" departLane="allowed" departSpeed="random">
        <route edges="a b c"/>
    </vehicle>
    <vehicle id="22" depart="7.33" departLane="allowed" departSpeed="random">
        <route edges="a b c"/>
    </vehicle>
    <vehicle id="23" depart="7.66" departLane="allowed" departSpeed="random">
        <route edges="a b c"/>
    </vehicle>
    <vehicle id="24" depart="7.99" departLane="allowed" departSpeed="random">
        <route edges="a b c"/>
    </vehicle>
    <vehicle id="25" depart="8.32" departLane="allowed" departSpeed="random">
        <route edges="a b c"/>
    </vehicle>
    <vehicle id="26" depart="8.66" departLane="allowed" departSpeed="random">
        <route edges="a b c"/>
    </vehicle>
    <vehicle id="27" depart="8.99" departLane="allowed" departSpeed="random">
        <route edges="a b c"/>
    </vehicle>
    <vehicle id="28" depart="9.32" departLane="allowed" departSpeed="random">
        <route edges="a b c"/>
    </vehicle>
    <vehicle id="29" depart="9.66" departLane="allowed" departSpeed="random">
        <route edges="a b c"/>
    </vehicle>
    <vehicle id="30" depart="9.99" departLane="allowed" departSpeed="random">
        <route edges="a b c"/>
    </vehicle>
    <vehicle id="31" depart="10.32" departLane="allowed" departSpeed="random">
        <route edges="a b c"/>
    </vehicle>
    <vehicle id="32" depart="10.66" departLane="allowed" departSpeed="random">
        <route edges="a b c"/>
    </vehicle>
    <vehicle id="33" depart="10.99" departLane="allowed" departSpeed="random">
        <route edges="a b c"/>
    </vehicle>
    <vehicle id="34" depart="11.32" departLane="allowed" departSpeed="random">
        <route edges="a b c"/>
    </vehicle>
    <vehicle id="35" depart="11.65" departLane="allowed" departSpeed="random">
        <route edges="a b c"/>
    </vehicle>
    <vehicle id="36" depart="11.99" departLane="allowed" departSpeed="random">
        <route edges="a b c"/>
    </vehicle>
    <vehicle id="37" depart="12.32" departLane="allowed" departSpeed="random">
        <route edges="a b c"/>
    </vehicle>
    <vehicle id="38" depart="12.65" departLane="allowed" departSpeed="random">
        <route edges="a b c"/>
    </vehicle>
    <vehicle id="39" depart="12.99" departLane="allowed" departSpeed="random">
        <route edges="a b c"/>
    </vehicle>
    <vehicle id="40" depart="13.32" departLane="allowed" departSpeed="random">
        <route edges="a b c"/>
    </vehicle>
    <vehicle id="41" depart="13.65" departLane="allowed" departSpeed="random">
        <route edges="a b c"/>
    </vehicle>
    <vehicle id="42" depart="13.99" departLane="allowed" departSpeed="random">
        <route edges="a b c"/>
    </vehicle>
    <vehicle id="43" depart="14.32" departLane="allowed" departSpeed="random">
        <route edges="a b c"/>
    </vehicle>
    <vehicle id="44" depart="14.65" departLane="allowed" departSpeed="random">
        <route edges="a b c"/>
    </vehicle>
    <vehicle id="45" depart="14.98" departLane="allowed" departSpeed="random">
        <route edges="a b c"/>
    </vehicle>
    <vehicle id="46" depart="15.32" departLane="allowed" departSpeed="random">
        <route edges="a b c"/>
    </vehicle>
    <vehicle id="47" depart="15.65" departLane="allowed" departSpeed="random">
        <route edges="a b c"/>
    </vehicle>
    <vehicle id="48" depart="15.98" departLane="allowed" departSpeed="random">
        <route edges="a b c"/>
    </vehicle>
    <vehicle id="49" depart="16.32" departLane="allowed" departSpeed="random">
        <route edges="a b c"/>
    </vehicle>
    <vehicle id="50" depart="16.65" departLane="allowed" departSpeed="random">
        <route edges="a b c"/>
    </vehicle>
    <vehicle id="51" depart="16.98" departLane="allowed" departSpeed="random">
        <route edges="a b c"/>
    </vehicle>
    <vehicle id="52" depart="17.32" departLane="allowed" departSpeed="random">
        <route edges="a b c"/>
    </vehicle>
    <vehicle id="53" depart="17.65" departLane="allowed" departSpeed="random">
        <route edges="a b c"/>
    </vehicle>
    <vehicle id="54" depart="17.98" departLane="allowed" departSpeed="random">
        <route edges="a b c"/>
    </vehicle>
    <vehicle id="55" depart="18.32" departLane="allowed" departSpeed="random">
        <route edges="a b c"/>
    </vehicle>
    <vehicle id="56" depart="18.65" departLane="allowed" departSpeed="random">
        <route edges="a b c"/>
    </vehicle>
    <vehicle id="57" depart="18.98" departLane="allowed" departSpeed="random">
        <route edges="a b c"/>
    </vehicle>
    <vehicle id="58" depart="19.31" departLane="allowed" departSpeed="random">
        <route edges="a b c"/>
    </vehicle>
    <vehicle id="59" depart="19.65" departLane="allowed" departSpeed="random">
        <route edges="a b c"/>
    </vehicle>
    <vehicle id="60" depart="19.98" departLane="allowed" departSpeed="random">
        <route edges="a b c"/>
    </vehicle>
    <vehicle id="61" depart="20.31" departLane="allowed" departSpeed="random">
        <route edges="a b c"/>
    </vehicle>
    <vehicle id="62" depart="20.65" departLane="allowed" departSpeed="random">
        <route edges="a b c"/>
    </vehicle>
    <vehicle id="63" depart="20.98" departLane="allowed" departSpeed="random">
        <route edges="a b c"/>
    </vehicle>
    <vehicle id="64" depart="21.31" departLane="allowed" departSpeed="random">
        <route edges="a b c"/>
    </vehicle>
    <vehicle id="65" depart="21.65" departLane="allowed" departSpeed="random">
        <route edges="a b c"/>
    </vehicle>
    <vehicle id="66" depart="21.98" departLane="allowed" departSpeed="random">
        <route edges="a b c"/>
    </vehicle>
    <vehicle id="67" depart="22.31" departLane="allowed" departSpeed="random">
        <route edges="a b c"/>
    </vehicle>
    <vehicle id="68" depart="22.64" departLane="allowed" departSpeed="random">
        <route edges="a b c"/>
    </vehicle>
    <vehicle id="69" depart="22.98" departLane="allowed" departSpeed="random">
        <route edges="a b c"/>
    </vehicle>
    <vehicle id="70" depart="23.31" departLane="allowed" departSpeed="random">
        <route edges="a b c"/>
    </vehicle>
    <vehicle id="71" depart="23.64" departLane="allowed" departSpeed="random">
        <route edges="a b c"/>
    </vehicle>
    <vehicle id="72" depart="23.98" departLane="allowed" departSpeed="random">
        <route edges="a b c"/>
    </vehicle>
    <vehicle id="73" depart="24.31" departLane="allowed" departSpeed="random">
        <route edges="a b c"/>
    </vehicle>
    <vehicle id="74" depart="24.64" departLane="allowed" departSpeed="random">
        <route edges="a b c"/>
    </vehicle>
    <vehicle id="75" depart="24.98" departLane="allowed" departSpeed="random">
        <route edges="a b c"/>
    </vehicle>
    <vehicle id="76" depart="25.31" departLane="allowed" departSpeed="random">
        <route edges="a b c"/>
    </vehicle>
    <vehicle id="77" depart="25.64" departLane="allowed" departSpeed="random">
        <route edges="a b c"/>
    </vehicle>
    <vehicle id="78" depart="25.97" departLane="allowed" departSpeed="random">
        <route edges="a b c"/>
    </vehicle>
    <vehicle id="79" depart="26.31" departLane="allowed" departSpeed="random">
        <route edges="a b c"/>
    </vehicle>
    <vehicle id="80" depart="26.64" departLane="allowed" departSpeed="random">
        <route edges="a b c"/>
    </vehicle>
    <vehicle id="81" depart="26.97" departLane="allowed" departSpeed="random">
        <route edges="a b c"/>
    </vehicle>
    <vehicle id="82" depart="27.31" departLane="allowed" departSpeed="random">
        <route edges="a b c"/>
    </vehicle>
    <vehicle id="83" depart="27.64" departLane="allowed" departSpeed="random">
        <route edges="a b c"/>
    </vehicle>
    <vehicle id="84" depart="27.97" departLane="allowed" departSpeed="random">
        <route edges="a b c"/>
    </vehicle>
    <vehicle id="85" depart="28.31" departLane="allowed" departSpeed="random">
        <route edges="a b c"/>
    </vehicle>
    <vehicle id="86" depart="28.64" departLane="allowed" departSpeed="random">
        <route edges="a b c"/>
    </vehicle>
    <vehicle id="87" depart="28.97" departLane="allowed" departSpeed="random">
        <route edges="a b c"/>
    </vehicle>
    <vehicle id="88" depart="29.30" departLane="allowed" departSpeed="random">
        <route edges="a b c"/>
    </vehicle>
    <vehicle id="89" depart="29.64" departLane="allowed" departSpeed="random">
        <route edges="a b c"/>
    </vehicle>
    <vehicle id="90" depart="29.97" departLane="allowed" departSpeed="random">
        <route edges="a b c"/>
    </vehicle>
    <vehicle id="91" depart="30.30" departLane="allowed" departSpeed="random">
        <route edges="a b c"/>
    </vehicle>
    <vehicle id="92" depart="30.64" departLane="allowed" departSpeed="random">
        <route edges="a b c"/>
    </vehicle>
    <vehicle id="93" depart="30.97" departLane="allowed" departSpeed="random">
        <route edges="a b c"/>
    </vehicle>
    <vehicle id="94" depart="31.30" departLane="allowed" departSpeed="random">
        <route edges="a b c"/>
    </vehicle>
    <vehicle id="95" depart="31.64" departLane="allowed" departSpeed="random">
        <route edges="a b c"/>
    </vehicle>
    <vehicle id="96" depart="31.97" departLane="allowed" departSpeed="random">
        <route edges="a b c"/>
    </vehicle>
    <vehicle id="97" depart="32.30" departLane="allowed" departSpeed="random">
        <route edges="a b c"/>
    </vehicle>
    <vehicle id="98" depart="32.63" departLane="allowed" departSpeed="random">
        <route edges="a b c"/>
    </vehicle>
    <vehicle id="99" depart="32.97" departLane="allowed" departSpeed="random">
        <route edges="a b c"/>
    </vehicle>
    <vehicle id="100" depart="33.30" departLane="allowed" departSpeed="random">
        <route edges="a b c"/>
    </vehicle>
    <vehicle id="101" depart="33.63" departLane="allowed" departSpeed="random">
        <route edges="a b c"/>
    </vehicle>
    <vehicle id="102" depart="33.97" departLane="allowed" departSpeed="random">
        <route edges="a b c"/>
    </vehicle>
    <vehicle id="103" depart="34.30" departLane="allowed" departSpeed="random">
        <route edges="a b c"/>
    </vehicle>
    <vehicle id="104" depart="34.63" departLane="allowed" departSpeed="random">
        <route edges="a b c"/>
    </vehicle>
    <vehicle id="105" depart="34.97" departLane="allowed" departSpeed="random">
        <route edges="a b c"/>
    </vehicle>
    <vehicle id="106" depart="35.30" departLane="allowed" departSpeed="random">
        <route edges="a b c"/>
    </vehicle>
    <vehicle id="107" depart="35.63" departLane="allowed" departSpeed="random">
        <route edges="a b c"/>
    </vehicle>
    <vehicle id="108" depart="35.96" departLane="allowed" departSpeed="random">
        <route edges="a b c"/>
    </vehicle>
    <vehicle id="109" depart="36.30" departLane="allowed" departSpeed="random">
        <route edges="a b c"/>
    </vehicle>
    <vehicle id="110" depart="36.63" departLane="allowed" departSpeed="random">
        <route edges="a b c"/>
    </vehicle>
    <vehicle id="111" depart="36.96" departLane="allowed" departSpeed="random">
        <route edges="a b c"/>
    </vehicle>
    <vehicle id="112" depart="37.30" departLane="allowed" departSpeed="random">
        <route edges="a b c"/>
    </vehicle>
    <vehicle id="113" depart="37.63" departLane="allowed" departSpeed="random">
        <route edges="a b c"/>
    </vehicle>
    <vehicle id="114" depart="37.96" departLane="allowed" departSpeed="random">
        <route edges="a b c"/>
    </vehicle>
    <vehicle id="115" depart="38.30" departLane="allowed" departSpeed="random">
        <route edges="a b c"/>
    </vehicle>
    <vehicle id="116" depart="38.63" departLane="allowed" departSpeed="random">
        <route edges="a b c"/>
    </vehicle>
    <vehicle id="117" depart="38.96" departLane="allowed" departSpeed="random">
        <route edges="a b c"/>
    </vehicle>
    <vehicle id="118" depart="39.29" departLane="allowed" departSpeed="random">
        <route edges="a b c"/>
    </vehicle>
    <vehicle id="119" depart="39.63" departLane="allowed" departSpeed="random">
        <route edges="a b c"/>
    </vehicle>
    <vehicle id="120" depart="39.96" departLane="allowed" departSpeed="random">
        <route edges="a b c"/>
    </vehicle>
    <vehicle id="121" depart="40.29" departLane="allowed" departSpeed="random">
        <route edges="a b c"/>
    </vehicle>
    <vehicle id="122" depart="40.63" departLane="allowed" departSpeed="random">
        <route edges="a b c"/>
    </vehicle>
    <vehicle id="123" depart="40.96" departLane="allowed" departSpeed="random">
        <route edges="a b c"/>
    </vehicle>
    <vehicle id="124" depart="41.29" departLane="allowed" departSpeed="random">
        <route edges="a b c"/>
    </vehicle>
    <vehicle id="125" depart="41.63" departLane="allowed" departSpeed="random">
        <route edges="a b c"/>
    </vehicle>
    <vehicle id="126" depart="41.96" departLane="allowed" departSpeed="random">
        <route edges="a b c"/>
    </vehicle>
    <vehicle id="127" depart="42.29" departLane="allowed" departSpeed="random">
        <route edges="a b c"/>
    </vehicle>
    <vehicle id="128" depart="42.62" departLane="allowed" departSpeed="random">
        <route edges="a b c"/>
    </vehicle>
    <vehicle id="129" depart="42.96" departLane="allowed" departSpeed="random">
        <route edges="a b c"/>
    </vehicle>
    <vehicle id="130" depart="43.29" departLane="allowed" departSpeed="random">
        <route edges="a b c"/>
    </vehicle>
    <vehicle id="131" depart="43.62" departLane="allowed" departSpeed="random">
        <route edges="a b c"/>
    </vehicle>
    <vehicle id="132" depart="43.96" departLane="allowed" departSpeed="random">
        <route edges="a b c"/>
    </vehicle>
    <vehicle id="133" depart="44.29" departLane="allowed" departSpeed="random">
        <route edges="a b c"/>
    </vehicle>
    <vehicle id="134" depart="44.62" departLane="allowed" departSpeed="random">
        <route edges="a b c"/>
    </vehicle>
    <vehicle id="135" depart="44.95" departLane="allowed" departSpeed="random">
        <route edges="a b c"/>
    </vehicle>
    <vehicle id="136" depart="45.29" departLane="allowed" departSpeed="random">
        <route edges="a b c"/>
    </vehicle>
    <vehicle id="137" depart="45.62" departLane="allowed" departSpeed="random">
        <route edges="a b c"/>
    </vehicle>
    <vehicle id="138" depart="45.95" departLane="allowed" departSpeed="random">
        <route edges="a b c"/>
    </vehicle>
    <vehicle id="139" depart="46.29" departLane="allowed" departSpeed="random">
        <route edges="a b c"/>
    </vehicle>
    <vehicle id="140" depart="46.62" departLane="allowed" departSpeed="random">
        <route edges="a b c"/>
    </vehicle>
    <vehicle id="141" depart="46.95" departLane="allowed" departSpeed="random">
        <route edges="a b c"/>
    </vehicle>
    <vehicle id="142" depart="47.29" departLane="allowed" departSpeed="random">
        <route edges="a b c"/>
    </vehicle>
    <vehicle id="143" depart="47.62" departLane="allowed" departSpeed="random">
        <route edges="a b c"/>
    </vehicle>
    <vehicle id="144" depart="47.95" departLane="allowed" departSpeed="random">
        <route edges="a b c"/>
    </vehicle>
    <vehicle id="145" depart="48.29" departLane="allowed" departSpeed="random">
        <route edges="a b c"/>
    </vehicle>
    <vehicle id="146" depart="48.62" departLane="allowed" departSpeed="random">
        <route edges="a b c"/>
    </vehicle>
    <vehicle id="147" depart="48.95" departLane="allowed" departSpeed="random">
        <route edges="a b c"/>
    </vehicle>
    <vehicle id="148" depart="49.28" departLane="allowed" departSpeed="random">
        <route edges="a b c"/>
    </vehicle>
    <vehicle id="149" depart="49.62" departLane="allowed" departSpeed="random">
        <route edges="a b c"/>
    </vehicle>
    <vehicle id="150" depart="49.95" departLane="allowed" departSpeed="random">
        <route edges="a b c"/>
    </vehicle>
    <vehicle id="151" depart="50.28" departLane="allowed" departSpeed="random">
        <route edges="a b c"/>
    </vehicle>
    <vehicle id="152" depart="50.62" departLane="allowed" departSpeed="random">
        <route edges="a b c"/>
    </vehicle>
    <vehicle id="153" depart="50.95" departLane="allowed" departSpeed="random">
        <route edges="a b c"/>
    </vehicle>
    <vehicle id="154" depart="51.28" departLane="allowed" departSpeed="random">
        <route edges="a b c"/>
    </vehicle>
    <vehicle id="155" depart="51.62" departLane="allowed" departSpeed="random">
        <route edges="a b c"/>
    </vehicle>
    <vehicle id="156" depart="51.95" departLane="allowed" departSpeed="random">
        <route edges="a b c"/>
    </vehicle>
    <vehicle id="157" depart="52.28" departLane="allowed" departSpeed="random">
        <route edges="a b c"/>
    </vehicle>
    <vehicle id="158" depart="52.61" departLane="allowed" departSpeed="random">
        <route edges="a b c"/>
    </vehicle>
    <vehicle id="159" depart="52.95" departLane="allowed" departSpeed="random">
        <route edges="a b c"/>
    </vehicle>
    <vehicle id="160" depart="53.28" departLane="allowed" departSpeed="random">
        <route edges="a b c"/>
    </vehicle>
    <vehicle id="161" depart="53.61" departLane="allowed" departSpeed="random">
        <route edges="a b c"/>
    </vehicle>
    <vehicle id="162" depart="53.95" departLane="allowed" departSpeed="random">
        <route edges="a b c"/>
    </vehicle>
    <vehicle id="163" depart="54.28" departLane="allowed" departSpeed="random">
        <route edges="a b c"/>
    </vehicle>
    <vehicle id="164" depart="54.61" departLane="allowed" departSpeed="random">
        <route edges="a b c"/>
    </vehicle>
    <vehicle id="165" depart="54.95" departLane="allowed" departSpeed="random">
        <route edges="a b c"/>
    </vehicle>
    <vehicle id="166" depart="55.28" departLane="allowed" departSpeed="random">
        <route edges="a b c"/>
    </vehicle>
    <vehicle id="167" depart="55.61" departLane="allowed" departSpeed="random">
        <route edges="a b c"/>
    </vehicle>
    <vehicle id="168" depart="55.94" departLane="allowed" departSpeed="random">
        <route edges="a b c"/>
    </vehicle>
    <vehicle id="169" depart="56.28" departLane="allowed" departSpeed="random">
        <route edges="a b c"/>
    </vehicle>
    <vehicle id="170" depart="56.61" departLane="allowed" departSpeed="random">
        <route edges="a b c"/>
    </vehicle>
    <vehicle id="171" depart="56.94" departLane="allowed" departSpeed="random">
        <route edges="a b c"/>
    </vehicle>
    <vehicle id="172" depart="57.28" departLane="allowed" departSpeed="random">
        <route edges="a b c"/>
    </vehicle>
    <vehicle id="173" depart="57.61" departLane="allowed" departSpeed="random">
        <route edges="a b c"/>
    </vehicle>
    <vehicle id="174" depart="57.94" departLane="allowed" departSpeed="random">
        <route edges="a b c"/>
    </vehicle>
    <vehicle id="175" depart="58.27" departLane="allowed" departSpeed="random">
        <route edges="a b c"/>
    </vehicle>
    <vehicle id="176" depart="58.61" departLane="allowed" departSpeed="random">
        <route edges="a b c"/>
    </vehicle>
    <vehicle id="177" depart="58.94" departLane="allowed" departSpeed="random">
        <route edges="a b c"/>
    </vehicle>
    <vehicle id="178" depart="59.27" departLane="allowed" departSpeed="random">
        <route edges="a b c"/>
    </vehicle>
    <vehicle id="179" depart="59.61" departLane="allowed" departSpeed="random">
        <route edges="a b c"/>
    </vehicle>
    <vehicle id="180" depart="59.94" departLane="allowed" departSpeed="random">
        <route edges="a b c"/>
    </vehicle>
    <vehicle id="181" depart="60.27" departLane="allowed" departSpeed="random">
        <route edges="a b c"/>
    </vehicle>
    <vehicle id="182" depart="60.61" departLane="allowed" departSpeed="random">
        <route edges="a b c"/>
    </vehicle>
    <vehicle id="183" depart="60.94" departLane="allowed" departSpeed="random">
        <route edges="a b c"/>
    </vehicle>
    <vehicle id="184" depart="61.27" departLane="allowed" departSpeed="random">
        <route edges="a b c"/>
    </vehicle>
    <vehicle id="185" depart="61.61" departLane="allowed" departSpeed="random">
        <route edges="a b c"/>
    </vehicle>
    <vehicle id="186" depart="61.94" departLane="allowed" departSpeed="random">
        <route edges="a b c"/>
    </vehicle>
    <vehicle id="187" depart="62.27" departLane="allowed" departSpeed="random">
        <route edges="a b c"/>
    </vehicle>
    <vehicle id="188" depart="62.60" departLane="allowed" departSpeed="random">
        <route edges="a b c"/>
    </vehicle>
    <vehicle id="189" depart="62.94" departLane="allowed" departSpeed="random">
        <route edges="a b c"/>
    </vehicle>
    <vehicle id="190" depart="63.27" departLane="allowed" departSpeed="random">
        <route edges="a b c"/>
    </vehicle>
    <vehicle id="191" depart="63.60" departLane="allowed" departSpeed="random">
        <route edges="a b c"/>
    </vehicle>
    <vehicle id="192" depart="63.94" departLane="allowed" departSpeed="random">
        <route edges="a b c"/>
    </vehicle>
    <vehicle id="193" depart="64.27" departLane="allowed" departSpeed="random">
        <route edges="a b c"/>
    </vehicle>
    <vehicle id="194" depart="64.60" departLane="allowed" departSpeed="random">
        <route edges="a b c"/>
    </vehicle>
    <vehicle id="195" depart="64.94" departLane="allowed" departSpeed="random">
        <route edges="a b c"/>
    </vehicle>
    <vehicle id="196" depart="65.27" departLane="allowed" departSpeed="random">
        <route edges="a b c"/>
    </vehicle>
    <vehicle id="197" depart="65.60" departLane="allowed" departSpeed="random">
        <route edges="a b c"/>
    </vehicle>
    <vehicle id="198" depart="65.93" departLane="allowed" departSpeed="random">
        <route edges="a b c"/>
    </vehicle>
    <vehicle id="199" depart="66.27" departLane="allowed" departSpeed="random">
        <route edges="a b c"/>
    </vehicle>
    <vehicle id="200" depart="66.60" departLane="allowed" departSpeed="random">
        <route edges="a b c"/>
    </vehicle>
    <vehicle id="201" depart="66.93" departLane="allowed" departSpeed="random">
        <route edges="a b c"/>
    </vehicle>
    <vehicle id="202" depart="67.27" departLane="allowed" departSpeed="random">
        <route edges="a b c"/>
    </vehicle>
    <vehicle id="203" depart="67.60" departLane="allowed" departSpeed="random">
        <route edges="a b c"/>
    </vehicle>
    <vehicle id="204" depart="67.93" departLane="allowed" departSpeed="random">
        <route edges="a b c"/>
    </vehicle>
    <vehicle id="205" depart="68.27" departLane="allowed" departSpeed="random">
        <route edges="a b c"/>
    </vehicle>
    <vehicle id="206" depart="68.60" departLane="allowed" departSpeed="random">
        <route edges="a b c"/>
    </vehicle>
    <vehicle id="207" depart="68.93" departLane="allowed" departSpeed="random">
        <route edges="a b c"/>
    </vehicle>
    <vehicle id="208" depart="69.26" departLane="allowed" departSpeed="random">
        <route edges="a b c"/>
    </vehicle>
    <vehicle id="209" depart="69.60" departLane="allowed" departSpeed="random">
        <route edges="a b c"/>
    </vehicle>
    <vehicle id="210" depart="69.93" departLane="allowed" departSpeed="random">
        <route edges="a b c"/>
    </vehicle>
    <vehicle id="211" depart="70.26" departLane="allowed" departSpeed="random">
        <route edges="a b c"/>
    </vehicle>
    <vehicle id="212" depart="70.60" departLane="allowed" departSpeed="random">
        <route edges="a b c"/>
    </vehicle>
    <vehicle id="213" depart="70.93" departLane="allowed" departSpeed="random">
        <route edges="a b c"/>
    </vehicle>
    <vehicle id="214" depart="71.26" departLane="allowed" departSpeed="random">
        <route edges="a b c"/>
    </vehicle>
    <vehicle id="215" depart="71.59" departLane="allowed" departSpeed="random">
        <route edges="a b c"/>
    </vehicle>
    <vehicle id="216" depart="71.93" departLane="allowed" departSpeed="random">
        <route edges="a b c"/>
    </vehicle>
    <vehicle id="217" depart="72.26" departLane="allowed" departSpeed="random">
        <route edges="a b c"/>
    </vehicle>
    <vehicle id="218" depart="72.59" departLane="allowed" departSpeed="random">
        <route edges="a b c"/>
    </vehicle>
    <vehicle id="219" depart="72.93" departLane="allowed" departSpeed="random">
        <route edges="a b c"/>
    </vehicle>
    <vehicle id="220" depart="73.26" departLane="allowed" departSpeed="random">
        <route edges="a b c"/>
    </vehicle>
    <vehicle id="221" depart="73.59" departLane="allowed" departSpeed="random">
        <route edges="a b c"/>
    </vehicle>
    <vehicle id="222" depart="73.93" departLane="allowed" departSpeed="random">
        <route edges="a b c"/>
    </vehicle>
    <vehicle id="223" depart="74.26" departLane="allowed" departSpeed="random">
        <route edges="a b c"/>
    </vehicle>
    <vehicle id="224" depart="74.59" departLane="allowed" departSpeed="random">
        <route edges="a b c"/>
    </vehicle>
    <vehicle id="225" depart="74.92" departLane="allowed" departSpeed="random">
        <route edges="a b c"/>
    </vehicle>
    <vehicle id="226" depart="75.26" departLane="allowed" departSpeed="random">
        <route edges="a b c"/>
    </vehicle>
    <vehicle id="227" depart="75.59" departLane="allowed" departSpeed="random">
        <route edges="a b c"/>
    </vehicle>
    <vehicle id="228" depart="75.92" departLane="allowed" departSpeed="random">
        <route edges="a b c"/>
    </vehicle>
    <vehicle id="229" depart="76.26" departLane="allowed" departSpeed="random">
        <route edges="a b c"/>
    </vehicle>
    <vehicle id="230" depart="76.59" departLane="allowed" departSpeed="random">
        <route edges="a b c"/>
    </vehicle>
    <vehicle id="231" depart="76.92" departLane="allowed" departSpeed="random">
        <route edges="a b c"/>
    </vehicle>
    <vehicle id="232" depart="77.26" departLane="allowed" departSpeed="random">
        <route edges="a b c"/>
    </vehicle>